<?xml version="1.0" encoding="UTF-8"?>
<configuration>
    <input>
        <net-file value="homs.net.xml"/>
        <route-files value="homs.rou.xml"/>
    </input>
    <processing>
        <time-to-teleport value="-1"/>
        <ignore-route-errors value="true"/>
    </processing>
    <time>
        <step-length value="1.0"/>
    </time>
</configuration>