<?xml version="1.0" encoding="UTF-8"?>

<!-- generated on 2026-05-09T15:56:14.109678+03:00 by Eclipse SUMO netconvert 1.25.0
<netconvertConfiguration xmlns:xsi="http://www.w3.org/2001/XMLSchema-instance" xsi:noNamespaceSchemaLocation="http://sumo.dlr.de/xsd/netconvertConfiguration.xsd">

    <input>
        <sumo-net-file value="homs.net.xml"/>
    </input>

    <output>
        <output-file value="homs.net.xml"/>
    </output>

    <processing>
        <geometry.min-radius.fix.railways value="false"/>
        <geometry.avoid-overlap value="false"/>
        <geometry.max-grade.fix value="false"/>
        <offset.disable-normalization value="true"/>
        <lefthand value="0"/>
    </processing>

    <tls_building>
        <tls.rebuild value="true"/>
    </tls_building>

    <junctions>
        <no-turnarounds value="true"/>
        <junctions.corner-detail value="5"/>
        <junctions.limit-turn-speed value="5.50"/>
        <rectangular-lane-cut value="0"/>
    </junctions>

    <pedestrian>
        <walkingareas value="0"/>
    </pedestrian>

</netconvertConfiguration>
-->

<net version="1.20" junctionCornerDetail="5" limitTurnSpeed="5.50" avoidOverlap="0" xmlns:xsi="http://www.w3.org/2001/XMLSchema-instance" xsi:noNamespaceSchemaLocation="http://sumo.dlr.de/xsd/net_file.xsd">

    <location netOffset="-289636.71,-3842653.15" convBoundary="0.00,0.00,1851.46,2719.44" origBoundary="36.702809,34.704467,36.722898,34.728951" projParameter="+proj=utm +zone=37 +ellps=WGS84 +datum=WGS84 +units=m +no_defs"/>

    <type id="highway.footway" priority="1" numLanes="1" speed="2.78" allow="pedestrian" oneway="1" width="2.00"/>
    <type id="highway.residential" priority="3" numLanes="1" speed="13.89" disallow="tram rail_urban rail rail_electric rail_fast ship container cable_car subway aircraft wheelchair scooter drone" oneway="0"/>
    <type id="highway.secondary" priority="11" numLanes="1" speed="27.78" disallow="tram rail_urban rail rail_electric rail_fast ship container cable_car subway aircraft wheelchair scooter drone" oneway="0"/>
    <type id="highway.service" priority="1" numLanes="1" speed="5.56" allow="pedestrian delivery bicycle" oneway="0"/>
    <type id="highway.trunk" priority="13" numLanes="2" speed="27.78" disallow="pedestrian bicycle tram rail_urban rail rail_electric rail_fast ship container cable_car subway aircraft wheelchair scooter drone" oneway="0"/>
    <type id="highway.trunk_link" priority="8" numLanes="1" speed="22.22" disallow="pedestrian bicycle tram rail_urban rail rail_electric rail_fast ship container cable_car subway aircraft wheelchair scooter drone" oneway="0"/>
    <type id="highway.unclassified" priority="4" numLanes="1" speed="13.89" disallow="tram rail_urban rail rail_electric rail_fast ship container cable_car subway aircraft wheelchair scooter drone" oneway="0"/>

    <edge id=":105754153#1-AddedOffRampNode_0" function="internal">
        <lane id=":105754153#1-AddedOffRampNode_0_0" index="0" disallow="pedestrian bicycle tram rail_urban rail rail_electric rail_fast ship container cable_car subway aircraft wheelchair scooter drone" speed="27.78" length="8.27" shape="664.27,1187.19 666.67,1186.44 668.09,1185.19 669.50,1183.93 671.90,1183.18"/>
        <lane id=":105754153#1-AddedOffRampNode_0_1" index="1" disallow="pedestrian bicycle tram rail_urban rail rail_electric rail_fast ship container cable_car subway aircraft wheelchair scooter drone" speed="27.78" length="8.27" shape="664.27,1187.19 672.23,1186.37"/>
        <lane id=":105754153#1-AddedOffRampNode_0_2" index="2" disallow="pedestrian bicycle tram rail_urban rail rail_electric rail_fast ship container cable_car subway aircraft wheelchair scooter drone" speed="27.78" length="8.27" shape="664.61,1190.38 672.56,1189.55"/>
    </edge>
    <edge id=":1217584553_0" function="internal">
        <lane id=":1217584553_0_0" index="0" disallow="pedestrian bicycle tram rail_urban rail rail_electric rail_fast ship container cable_car subway aircraft wheelchair scooter drone" speed="6.21" length="8.33" shape="708.16,2303.62 709.77,2305.03 711.51,2305.52 713.40,2305.07 715.42,2303.70"/>
        <lane id=":1217584553_0_1" index="1" disallow="pedestrian bicycle tram rail_urban rail rail_electric rail_fast ship container cable_car subway aircraft wheelchair scooter drone" speed="7.04" length="11.03" shape="708.16,2303.62 710.66,2306.11 713.05,2307.36 715.34,2307.35 717.53,2306.11"/>
    </edge>
    <edge id=":1217584553_2" function="internal">
        <lane id=":1217584553_2_0" index="0" disallow="tram rail_urban rail rail_electric rail_fast ship container cable_car subway aircraft wheelchair scooter drone" speed="3.67" length="4.74" shape="708.16,2303.62 708.55,2305.04 708.33,2305.91 707.49,2306.26 706.03,2306.08"/>
    </edge>
    <edge id=":1217638766_0" function="internal">
        <lane id=":1217638766_0_0" index="0" disallow="tram rail_urban rail rail_electric rail_fast ship container cable_car subway aircraft wheelchair scooter drone" speed="20.84" length="21.04" shape="1249.24,2142.53 1247.97,2147.00 1247.05,2152.75 1246.42,2158.56 1245.99,2163.26"/>
    </edge>
    <edge id=":1217638766_1" function="internal">
        <lane id=":1217638766_1_0" index="0" disallow="tram rail_urban rail rail_electric rail_fast ship container cable_car subway aircraft wheelchair scooter drone" speed="27.78" length="21.72" shape="1249.24,2142.53 1247.06,2146.80 1243.97,2152.01 1240.66,2157.09 1237.86,2161.00"/>
    </edge>
    <edge id=":1217638766_2" function="internal">
        <lane id=":1217638766_2_0" index="0" disallow="tram rail_urban rail rail_electric rail_fast ship container cable_car subway aircraft wheelchair scooter drone" speed="5.49" length="10.80" shape="1242.81,2162.96 1242.83,2159.31 1242.01,2157.76 1240.35,2158.32 1237.86,2161.00"/>
    </edge>
    <edge id=":1217638766_3" function="internal">
        <lane id=":1217638766_3_0" index="0" disallow="tram rail_urban rail rail_electric rail_fast ship container cable_car subway aircraft wheelchair scooter drone" speed="3.65" length="4.67" shape="1242.81,2162.96 1243.72,2161.84 1244.55,2161.52 1245.31,2161.99 1245.99,2163.26"/>
    </edge>
    <edge id=":1217638781_0" function="internal">
        <lane id=":1217638781_0_0" index="0" disallow="tram rail_urban rail rail_electric rail_fast ship container cable_car subway aircraft wheelchair scooter drone" speed="27.78" length="16.26" shape="906.32,2137.36 904.72,2132.60 903.62,2129.29 903.10,2125.92 903.27,2120.98"/>
        <lane id=":1217638781_0_1" index="1" disallow="tram rail_urban rail rail_electric rail_fast ship container cable_car subway aircraft wheelchair scooter drone" speed="27.03" length="16.26" shape="909.38,2136.43 907.89,2132.02 906.83,2128.96 906.32,2125.83 906.45,2121.25"/>
    </edge>
    <edge id=":1217638781_2" function="internal">
        <lane id=":1217638781_2_0" index="0" disallow="tram rail_urban rail rail_electric rail_fast ship container cable_car subway aircraft wheelchair scooter drone" speed="27.78" length="16.53" shape="900.28,2137.12 901.59,2133.86 902.35,2130.44 902.82,2126.32 903.27,2120.98"/>
    </edge>
    <edge id=":1217638825_0" function="internal">
        <lane id=":1217638825_0_0" index="0" disallow="pedestrian bicycle tram rail_urban rail rail_electric rail_fast ship container cable_car subway aircraft wheelchair scooter drone" speed="6.88" length="9.84" shape="913.23,1154.13 913.67,1156.98 914.78,1159.02 916.55,1160.26 918.98,1160.71"/>
    </edge>
    <edge id=":1217638825_1" function="internal">
        <lane id=":1217638825_1_0" index="0" disallow="tram rail_urban rail rail_electric rail_fast ship container cable_car subway aircraft wheelchair scooter drone" speed="3.65" length="4.67" shape="913.23,1154.13 912.47,1155.36 911.69,1155.78 910.87,1155.41 910.03,1154.24"/>
    </edge>
    <edge id=":1217638825_2" function="internal">
        <lane id=":1217638825_2_0" index="0" disallow="pedestrian bicycle tram rail_urban rail rail_electric rail_fast ship container cable_car subway aircraft wheelchair scooter drone" speed="6.07" length="9.07" shape="904.34,1159.10 906.91,1159.23 908.71,1158.46 909.75,1156.80 910.03,1154.24"/>
    </edge>
    <edge id=":1217638825_3" function="internal">
        <lane id=":1217638825_3_0" index="0" disallow="pedestrian bicycle tram rail_urban rail rail_electric rail_fast ship container cable_car subway aircraft wheelchair scooter drone" speed="27.78" length="15.04" shape="904.34,1159.10 908.64,1159.93 911.61,1160.39 914.60,1160.61 918.98,1160.71"/>
        <lane id=":1217638825_3_1" index="1" disallow="pedestrian bicycle tram rail_urban rail rail_electric rail_fast ship container cable_car subway aircraft wheelchair scooter drone" speed="27.78" length="15.04" shape="903.73,1162.25 908.20,1163.10 911.28,1163.58 914.39,1163.80 918.93,1163.91"/>
    </edge>
    <edge id=":1217638868_0" function="internal">
        <lane id=":1217638868_0_0" index="0" disallow="tram rail_urban rail rail_electric rail_fast ship container cable_car subway aircraft wheelchair scooter drone" speed="6.70" length="6.22" shape="911.57,1979.75 911.53,1981.37 911.91,1982.81 912.71,1984.06 913.92,1985.14"/>
    </edge>
    <edge id=":1217638868_1" function="internal">
        <lane id=":1217638868_1_0" index="0" disallow="tram rail_urban rail rail_electric rail_fast ship container cable_car subway aircraft wheelchair scooter drone" speed="3.65" length="1.33" shape="911.57,1979.75 910.68,1980.74"/>
    </edge>
    <edge id=":1217638868_4" function="internal">
        <lane id=":1217638868_4_0" index="0" disallow="tram rail_urban rail rail_electric rail_fast ship container cable_car subway aircraft wheelchair scooter drone" speed="3.65" length="3.34" shape="910.68,1980.74 910.61,1980.82 909.76,1981.11 909.02,1980.60 908.40,1979.30"/>
    </edge>
    <edge id=":1217638868_2" function="internal">
        <lane id=":1217638868_2_0" index="0" disallow="tram rail_urban rail rail_electric rail_fast ship container cable_car subway aircraft wheelchair scooter drone" speed="27.78" length="8.11" shape="909.10,1987.32 909.08,1984.93 908.69,1983.30 908.33,1981.67 908.40,1979.30"/>
    </edge>
    <edge id=":1217638868_3" function="internal">
        <lane id=":1217638868_3_0" index="0" disallow="tram rail_urban rail rail_electric rail_fast ship container cable_car subway aircraft wheelchair scooter drone" speed="5.11" length="3.20" shape="909.10,1987.32 909.59,1985.24 910.31,1984.46"/>
    </edge>
    <edge id=":1217638868_5" function="internal">
        <lane id=":1217638868_5_0" index="0" disallow="tram rail_urban rail rail_electric rail_fast ship container cable_car subway aircraft wheelchair scooter drone" speed="5.11" length="3.96" shape="910.31,1984.46 910.56,1984.19 912.00,1984.15 913.92,1985.14"/>
    </edge>
    <edge id=":1217638919_0" function="internal">
        <lane id=":1217638919_0_0" index="0" disallow="tram rail_urban rail rail_electric rail_fast ship container cable_car subway aircraft wheelchair scooter drone" speed="3.65" length="4.67" shape="1178.66,1926.62 1178.48,1928.05 1177.95,1928.77 1177.06,1928.77 1175.80,1928.06"/>
    </edge>
    <edge id=":1217638946_0" function="internal">
        <lane id=":1217638946_0_0" index="0" disallow="tram rail_urban rail rail_electric rail_fast ship container cable_car subway aircraft wheelchair scooter drone" speed="27.78" length="3.32" shape="966.02,2238.48 962.85,2237.49"/>
    </edge>
    <edge id=":1217638946_1" function="internal">
        <lane id=":1217638946_1_0" index="0" disallow="tram rail_urban rail rail_electric rail_fast ship container cable_car subway aircraft wheelchair scooter drone" speed="27.78" length="3.32" shape="966.97,2235.42 966.03,2235.13 965.40,2234.89 964.79,2234.60 963.93,2234.13"/>
    </edge>
    <edge id=":1217638963_0" function="internal">
        <lane id=":1217638963_0_0" index="0" disallow="tram rail_urban rail rail_electric rail_fast ship container cable_car subway aircraft wheelchair scooter drone" speed="3.65" length="4.67" shape="1821.63,1932.01 1821.71,1933.45 1821.31,1934.25 1820.43,1934.41 1819.07,1933.93"/>
    </edge>
    <edge id=":1224410093_0" function="internal">
        <lane id=":1224410093_0_0" index="0" disallow="tram rail_urban rail rail_electric rail_fast ship container cable_car subway aircraft wheelchair scooter drone" speed="3.65" length="4.67" shape="319.38,2388.11 317.94,2388.11 317.17,2387.66 317.06,2386.77 317.62,2385.45"/>
    </edge>
    <edge id=":1224410097_0" function="internal">
        <lane id=":1224410097_0_0" index="0" disallow="tram rail_urban rail rail_electric rail_fast ship container cable_car subway aircraft wheelchair scooter drone" speed="5.55" length="9.42" shape="409.31,2232.01 407.48,2229.75 405.80,2229.10 404.29,2230.06 402.93,2232.64"/>
    </edge>
    <edge id=":1224410097_1" function="internal">
        <lane id=":1224410097_1_0" index="0" disallow="tram rail_urban rail rail_electric rail_fast ship container cable_car subway aircraft wheelchair scooter drone" speed="11.28" length="16.57" shape="409.31,2232.01 406.86,2227.42 405.52,2223.28 405.28,2219.61 406.16,2216.39"/>
    </edge>
    <edge id=":1224410097_2" function="internal">
        <lane id=":1224410097_2_0" index="0" disallow="tram rail_urban rail rail_electric rail_fast ship container cable_car subway aircraft wheelchair scooter drone" speed="3.65" length="4.67" shape="409.31,2232.01 409.35,2230.57 409.82,2229.80 410.71,2229.72 412.03,2230.31"/>
    </edge>
    <edge id=":1224410097_3" function="internal">
        <lane id=":1224410097_3_0" index="0" disallow="tram rail_urban rail rail_electric rail_fast ship container cable_car subway aircraft wheelchair scooter drone" speed="10.17" length="13.38" shape="409.05,2217.77 408.44,2220.20 408.74,2223.10 409.93,2226.48 412.03,2230.31"/>
    </edge>
    <edge id=":1224410097_4" function="internal">
        <lane id=":1224410097_4_0" index="0" disallow="tram rail_urban rail rail_electric rail_fast ship container cable_car subway aircraft wheelchair scooter drone" speed="13.89" length="16.09" shape="409.05,2217.77 402.93,2232.64"/>
    </edge>
    <edge id=":1224410097_5" function="internal">
        <lane id=":1224410097_5_0" index="0" disallow="tram rail_urban rail rail_electric rail_fast ship container cable_car subway aircraft wheelchair scooter drone" speed="3.65" length="1.44" shape="409.05,2217.77 407.81,2218.50"/>
    </edge>
    <edge id=":1224410097_9" function="internal">
        <lane id=":1224410097_9_0" index="0" disallow="tram rail_urban rail rail_electric rail_fast ship container cable_car subway aircraft wheelchair scooter drone" speed="3.65" length="3.23" shape="407.81,2218.50 406.91,2218.52 406.36,2217.81 406.16,2216.39"/>
    </edge>
    <edge id=":1224410097_6" function="internal">
        <lane id=":1224410097_6_0" index="0" disallow="tram rail_urban rail rail_electric rail_fast ship container cable_car subway aircraft wheelchair scooter drone" speed="13.89" length="16.36" shape="399.94,2231.52 406.16,2216.39"/>
    </edge>
    <edge id=":1224410097_7" function="internal">
        <lane id=":1224410097_7_0" index="0" disallow="tram rail_urban rail rail_electric rail_fast ship container cable_car subway aircraft wheelchair scooter drone" speed="7.38" length="5.65" shape="399.94,2231.52 402.50,2226.63 402.61,2226.56"/>
    </edge>
    <edge id=":1224410097_8" function="internal">
        <lane id=":1224410097_8_0" index="0" disallow="tram rail_urban rail rail_electric rail_fast ship container cable_car subway aircraft wheelchair scooter drone" speed="3.65" length="1.44" shape="399.94,2231.52 401.11,2230.68"/>
    </edge>
    <edge id=":1224410097_10" function="internal">
        <lane id=":1224410097_10_0" index="0" disallow="tram rail_urban rail rail_electric rail_fast ship container cable_car subway aircraft wheelchair scooter drone" speed="7.38" length="12.20" shape="402.61,2226.56 405.37,2224.80 408.55,2226.02 412.03,2230.31"/>
    </edge>
    <edge id=":1224410097_11" function="internal">
        <lane id=":1224410097_11_0" index="0" disallow="tram rail_urban rail rail_electric rail_fast ship container cable_car subway aircraft wheelchair scooter drone" speed="3.65" length="3.23" shape="401.11,2230.68 402.00,2230.58 402.61,2231.24 402.93,2232.64"/>
    </edge>
    <edge id=":1224410099_0" function="internal">
        <lane id=":1224410099_0_0" index="0" disallow="tram rail_urban rail rail_electric rail_fast ship container cable_car subway aircraft wheelchair scooter drone" speed="6.22" length="9.05" shape="504.15,2270.11 502.76,2268.00 501.06,2266.95 499.07,2266.96 496.78,2268.04"/>
    </edge>
    <edge id=":1224410099_1" function="internal">
        <lane id=":1224410099_1_0" index="0" disallow="tram rail_urban rail rail_electric rail_fast ship container cable_car subway aircraft wheelchair scooter drone" speed="13.89" length="14.93" shape="504.15,2270.11 497.24,2256.88"/>
    </edge>
    <edge id=":1224410099_2" function="internal">
        <lane id=":1224410099_2_0" index="0" disallow="tram rail_urban rail rail_electric rail_fast ship container cable_car subway aircraft wheelchair scooter drone" speed="8.64" length="14.94" shape="504.15,2270.11 502.92,2266.21 503.08,2262.75 504.65,2259.71 507.62,2257.09"/>
    </edge>
    <edge id=":1224410099_3" function="internal">
        <lane id=":1224410099_3_0" index="0" disallow="tram rail_urban rail rail_electric rail_fast ship container cable_car subway aircraft wheelchair scooter drone" speed="3.65" length="4.67" shape="504.15,2270.11 504.36,2268.68 504.92,2267.98 505.81,2268.00 507.05,2268.75"/>
    </edge>
    <edge id=":1224410099_4" function="internal">
        <lane id=":1224410099_4_0" index="0" disallow="tram rail_urban rail rail_electric rail_fast ship container cable_car subway aircraft wheelchair scooter drone" speed="7.26" length="10.28" shape="509.37,2259.77 507.35,2261.56 506.29,2263.65 506.19,2266.05 507.05,2268.75"/>
    </edge>
    <edge id=":1224410099_5" function="internal">
        <lane id=":1224410099_5_0" index="0" disallow="tram rail_urban rail rail_electric rail_fast ship container cable_car subway aircraft wheelchair scooter drone" speed="13.89" length="15.07" shape="509.37,2259.77 496.78,2268.04"/>
    </edge>
    <edge id=":1224410099_6" function="internal">
        <lane id=":1224410099_6_0" index="0" disallow="tram rail_urban rail rail_electric rail_fast ship container cable_car subway aircraft wheelchair scooter drone" speed="7.90" length="4.10" shape="509.37,2259.77 505.77,2261.45 505.65,2261.46"/>
    </edge>
    <edge id=":1224410099_7" function="internal">
        <lane id=":1224410099_7_0" index="0" disallow="tram rail_urban rail rail_electric rail_fast ship container cable_car subway aircraft wheelchair scooter drone" speed="3.65" length="1.44" shape="509.37,2259.77 507.93,2259.76"/>
    </edge>
    <edge id=":1224410099_16" function="internal">
        <lane id=":1224410099_16_0" index="0" disallow="tram rail_urban rail rail_electric rail_fast ship container cable_car subway aircraft wheelchair scooter drone" speed="7.90" length="10.31" shape="505.65,2261.46 502.54,2261.53 499.70,2260.00 497.24,2256.88"/>
    </edge>
    <edge id=":1224410099_17" function="internal">
        <lane id=":1224410099_17_0" index="0" disallow="tram rail_urban rail rail_electric rail_fast ship container cable_car subway aircraft wheelchair scooter drone" speed="3.65" length="3.23" shape="507.93,2259.76 507.16,2259.31 507.06,2258.42 507.62,2257.09"/>
    </edge>
    <edge id=":1224410099_8" function="internal">
        <lane id=":1224410099_8_0" index="0" disallow="tram rail_urban rail rail_electric rail_fast ship container cable_car subway aircraft wheelchair scooter drone" speed="6.39" length="9.04" shape="500.02,2255.28 501.56,2257.24 503.34,2258.20 505.36,2258.15 507.62,2257.09"/>
    </edge>
    <edge id=":1224410099_9" function="internal">
        <lane id=":1224410099_9_0" index="0" disallow="tram rail_urban rail rail_electric rail_fast ship container cable_car subway aircraft wheelchair scooter drone" speed="13.89" length="15.19" shape="500.02,2255.28 507.05,2268.75"/>
    </edge>
    <edge id=":1224410099_10" function="internal">
        <lane id=":1224410099_10_0" index="0" disallow="tram rail_urban rail rail_electric rail_fast ship container cable_car subway aircraft wheelchair scooter drone" speed="8.35" length="14.82" shape="500.02,2255.28 501.48,2258.96 501.43,2262.32 499.86,2265.34 496.78,2268.04"/>
    </edge>
    <edge id=":1224410099_11" function="internal">
        <lane id=":1224410099_11_0" index="0" disallow="tram rail_urban rail rail_electric rail_fast ship container cable_car subway aircraft wheelchair scooter drone" speed="3.65" length="4.67" shape="500.02,2255.28 499.92,2256.72 499.43,2257.46 498.54,2257.52 497.24,2256.88"/>
    </edge>
    <edge id=":1224410099_12" function="internal">
        <lane id=":1224410099_12_0" index="0" disallow="tram rail_urban rail rail_electric rail_fast ship container cable_car subway aircraft wheelchair scooter drone" speed="6.92" length="9.88" shape="495.02,2265.37 497.09,2263.56 498.16,2261.54 498.21,2259.32 497.24,2256.88"/>
    </edge>
    <edge id=":1224410099_13" function="internal">
        <lane id=":1224410099_13_0" index="0" disallow="tram rail_urban rail rail_electric rail_fast ship container cable_car subway aircraft wheelchair scooter drone" speed="13.89" length="15.08" shape="495.02,2265.37 507.62,2257.09"/>
    </edge>
    <edge id=":1224410099_14" function="internal">
        <lane id=":1224410099_14_0" index="0" disallow="tram rail_urban rail rail_electric rail_fast ship container cable_car subway aircraft wheelchair scooter drone" speed="7.77" length="4.13" shape="495.02,2265.37 498.76,2263.61"/>
    </edge>
    <edge id=":1224410099_15" function="internal">
        <lane id=":1224410099_15_0" index="0" disallow="tram rail_urban rail rail_electric rail_fast ship container cable_car subway aircraft wheelchair scooter drone" speed="3.65" length="1.44" shape="495.02,2265.37 496.46,2265.38"/>
    </edge>
    <edge id=":1224410099_18" function="internal">
        <lane id=":1224410099_18_0" index="0" disallow="tram rail_urban rail rail_electric rail_fast ship container cable_car subway aircraft wheelchair scooter drone" speed="7.77" length="10.63" shape="498.76,2263.61 502.01,2263.59 504.77,2265.30 507.05,2268.75"/>
    </edge>
    <edge id=":1224410099_19" function="internal">
        <lane id=":1224410099_19_0" index="0" disallow="tram rail_urban rail rail_electric rail_fast ship container cable_car subway aircraft wheelchair scooter drone" speed="3.65" length="3.23" shape="496.46,2265.38 497.23,2265.82 497.34,2266.71 496.78,2268.04"/>
    </edge>
    <edge id=":1224410103_0" function="internal">
        <lane id=":1224410103_0_0" index="0" disallow="tram rail_urban rail rail_electric rail_fast ship container cable_car subway aircraft wheelchair scooter drone" speed="13.89" length="27.75" shape="364.91,2356.80 360.74,2360.69 355.53,2366.96 350.77,2373.60 347.97,2378.60"/>
    </edge>
    <edge id=":1224410103_1" function="internal">
        <lane id=":1224410103_1_0" index="0" disallow="tram rail_urban rail rail_electric rail_fast ship container cable_car subway aircraft wheelchair scooter drone" speed="13.89" length="29.74" shape="364.91,2356.80 340.67,2374.04"/>
    </edge>
    <edge id=":1224410103_2" function="internal">
        <lane id=":1224410103_2_0" index="0" disallow="tram rail_urban rail rail_electric rail_fast ship container cable_car subway aircraft wheelchair scooter drone" speed="7.65" length="22.06" shape="364.91,2356.80 358.30,2360.25 354.51,2360.23 353.55,2356.75 355.41,2349.80"/>
    </edge>
    <edge id=":1224410103_3" function="internal">
        <lane id=":1224410103_3_0" index="0" disallow="tram rail_urban rail rail_electric rail_fast ship container cable_car subway aircraft wheelchair scooter drone" speed="3.66" length="4.70" shape="364.91,2356.80 363.47,2356.94 362.65,2356.57 362.45,2355.70 362.87,2354.31"/>
    </edge>
    <edge id=":1224410103_4" function="internal">
        <lane id=":1224410103_4_0" index="0" disallow="tram rail_urban rail rail_electric rail_fast ship container cable_car subway aircraft wheelchair scooter drone" speed="5.48" length="10.48" shape="358.41,2350.93 357.51,2354.24 357.96,2355.91 359.75,2355.94 362.87,2354.31"/>
    </edge>
    <edge id=":1224410103_5" function="internal">
        <lane id=":1224410103_5_0" index="0" disallow="tram rail_urban rail rail_electric rail_fast ship container cable_car subway aircraft wheelchair scooter drone" speed="13.89" length="29.58" shape="358.41,2350.93 347.97,2378.60"/>
    </edge>
    <edge id=":1224410103_6" function="internal">
        <lane id=":1224410103_6_0" index="0" disallow="tram rail_urban rail rail_electric rail_fast ship container cable_car subway aircraft wheelchair scooter drone" speed="13.89" length="4.67" shape="358.41,2350.93 356.11,2354.99"/>
    </edge>
    <edge id=":1224410103_7" function="internal">
        <lane id=":1224410103_7_0" index="0" disallow="tram rail_urban rail rail_electric rail_fast ship container cable_car subway aircraft wheelchair scooter drone" speed="3.65" length="1.44" shape="358.41,2350.93 357.24,2351.77"/>
    </edge>
    <edge id=":1224410103_16" function="internal">
        <lane id=":1224410103_16_0" index="0" disallow="tram rail_urban rail rail_electric rail_fast ship container cable_car subway aircraft wheelchair scooter drone" speed="13.89" length="24.60" shape="356.11,2354.99 355.48,2356.12 350.44,2363.20 344.95,2369.92 340.67,2374.04"/>
    </edge>
    <edge id=":1224410103_17" function="internal">
        <lane id=":1224410103_17_0" index="0" disallow="tram rail_urban rail rail_electric rail_fast ship container cable_car subway aircraft wheelchair scooter drone" speed="3.65" length="3.23" shape="357.24,2351.77 356.35,2351.86 355.74,2351.20 355.41,2349.80"/>
    </edge>
    <edge id=":1224410103_8" function="internal">
        <lane id=":1224410103_8_0" index="0" disallow="tram rail_urban rail rail_electric rail_fast ship container cable_car subway aircraft wheelchair scooter drone" speed="13.89" length="27.31" shape="338.90,2371.37 343.00,2367.49 348.06,2361.30 352.68,2354.75 355.41,2349.80"/>
    </edge>
    <edge id=":1224410103_9" function="internal">
        <lane id=":1224410103_9_0" index="0" disallow="tram rail_urban rail rail_electric rail_fast ship container cable_car subway aircraft wheelchair scooter drone" speed="13.89" length="29.42" shape="338.90,2371.37 362.87,2354.31"/>
    </edge>
    <edge id=":1224410103_10" function="internal">
        <lane id=":1224410103_10_0" index="0" disallow="tram rail_urban rail rail_electric rail_fast ship container cable_car subway aircraft wheelchair scooter drone" speed="7.62" length="21.96" shape="338.90,2371.37 345.36,2367.92 349.02,2367.98 349.89,2371.54 347.97,2378.60"/>
    </edge>
    <edge id=":1224410103_11" function="internal">
        <lane id=":1224410103_11_0" index="0" disallow="tram rail_urban rail rail_electric rail_fast ship container cable_car subway aircraft wheelchair scooter drone" speed="3.65" length="4.67" shape="338.90,2371.37 340.35,2371.37 341.12,2371.82 341.23,2372.71 340.67,2374.04"/>
    </edge>
    <edge id=":1224410103_12" function="internal">
        <lane id=":1224410103_12_0" index="0" disallow="tram rail_urban rail rail_electric rail_fast ship container cable_car subway aircraft wheelchair scooter drone" speed="5.46" length="10.43" shape="344.98,2377.47 345.89,2374.12 345.48,2372.43 343.74,2372.40 340.67,2374.04"/>
    </edge>
    <edge id=":1224410103_13" function="internal">
        <lane id=":1224410103_13_0" index="0" disallow="tram rail_urban rail rail_electric rail_fast ship container cable_car subway aircraft wheelchair scooter drone" speed="13.89" length="29.58" shape="344.98,2377.47 355.41,2349.80"/>
    </edge>
    <edge id=":1224410103_14" function="internal">
        <lane id=":1224410103_14_0" index="0" disallow="tram rail_urban rail rail_electric rail_fast ship container cable_car subway aircraft wheelchair scooter drone" speed="13.89" length="4.62" shape="344.98,2377.47 347.25,2373.45"/>
    </edge>
    <edge id=":1224410103_15" function="internal">
        <lane id=":1224410103_15_0" index="0" disallow="tram rail_urban rail rail_electric rail_fast ship container cable_car subway aircraft wheelchair scooter drone" speed="3.65" length="1.44" shape="344.98,2377.47 346.15,2376.63"/>
    </edge>
    <edge id=":1224410103_18" function="internal">
        <lane id=":1224410103_18_0" index="0" disallow="tram rail_urban rail rail_electric rail_fast ship container cable_car subway aircraft wheelchair scooter drone" speed="13.89" length="24.79" shape="347.25,2373.45 347.93,2372.26 353.01,2365.15 358.55,2358.41 362.87,2354.31"/>
    </edge>
    <edge id=":1224410103_19" function="internal">
        <lane id=":1224410103_19_0" index="0" disallow="tram rail_urban rail rail_electric rail_fast ship container cable_car subway aircraft wheelchair scooter drone" speed="3.65" length="3.23" shape="346.15,2376.63 347.04,2376.54 347.64,2377.19 347.97,2378.60"/>
    </edge>
    <edge id=":1224410105_0" function="internal">
        <lane id=":1224410105_0_0" index="0" disallow="tram rail_urban rail rail_electric rail_fast ship container cable_car subway aircraft wheelchair scooter drone" speed="3.65" length="4.67" shape="615.97,2377.90 615.83,2379.34 615.31,2380.06 614.41,2380.08 613.15,2379.40"/>
    </edge>
    <edge id=":1224410107_0" function="internal">