[General]
network                     = RSUExampleScenario
cmdenv-express-mode         = true
cmdenv-autoflush            = true
cmdenv-status-frequency     = 1s
**.cmdenv-log-level         = info
image-path                  = ../../images
debug-on-errors             = true

##########################################################
#                   Simulation Parameters
##########################################################
sim-time-limit              = 120s
**.scalar-recording         = true
**.vector-recording         = true

*.playgroundSizeX           = 1851.46m
*.playgroundSizeY           = 2719.44m
*.playgroundSizeZ           = 50m

##########################################################
#            TraCIScenarioManager — SUMO Connection
##########################################################
*.manager.updateInterval            = 1s
*.manager.host                      = "localhost"
*.manager.port                      = 9999
*.manager.autoShutdown              = true
*.manager.launchConfig              = xmldoc("homs.launchd.xml")
*.manager.moduleType                = "org.car2x.veins.nodes.Car"
*.manager.moduleName                = "node"

##########################################################
#                   RSU Infrastructure
##########################################################
*.rsu[*].applType                   = "BaselineServer"
*.rsu[*].appl.headerLength          = 80 bit
*.rsu[*].appl.sendBeacons           = true

*.rsu[0].mobility.x                 = 1100
*.rsu[0].mobility.y                 = 525
*.rsu[0].mobility.z                 = 15

*.rsu[1].mobility.x                 = 950
*.rsu[1].mobility.y                 = 1600
*.rsu[1].mobility.z                 = 15

**.rsu[*].mobilityType              = "BaseMobility"
**.rsu[*].mobility.initFromDisplayString = false

##########################################################
#                     Vehicle Nodes
##########################################################
*.node[*].applType                  = "BaselineCar"
*.node[*].appl.headerLength         = 80 bit
*.node[*].appl.sendBeacons          = false
*.node[*].mobilityType              = "TraCIMobility"

*.node[*].veinsmobility.x           = 0
*.node[*].veinsmobility.y           = 0
*.node[*].veinsmobility.z           = 0

##########################################################
#              NIC & 802.11p Parameters
##########################################################
**.connectionManager.sendDirect         = true
**.connectionManager.maxInterfDist      = 700m
**.connectionManager.drawMaxIntfDist    = false

**.nic.mac1609_4.useServiceChannel      = false
**.nic.mac1609_4.bitrate                = 6Mbps
**.nic.mac1609_4.txPower                = 20mW
*.rsu[*].nic.mac1609_4.txPower         = 200mW

**.nic.phy80211p.minPowerLevel          = -110dBm
**.nic.phy80211p.useNoiseFloor          = true
**.nic.phy80211p.noiseFloor             = -98dBm
**.nic.phy80211p.usePropagationDelay    = true
**.nic.phy80211p.decider                = xmldoc("config.xml")
**.nic.phy80211p.analogueModels         = xmldoc("config.xml")
**.nic.phy80211p.antenna                = xmldoc("antenna.xml", "/root/Antenna[@id='monopole']")

##########################################################
#                    Configurations
##########################################################
[Config Default]

[Config WithBeaconing]
*.rsu[*].appl.sendBeacons           = true
*.node[*].appl.sendBeacons          = true